Version 4
SHEET 1 880 680
WIRE 272 -80 192 -80
WIRE 192 -64 192 -80
WIRE 272 -64 272 -80
WIRE 384 -16 336 -16
WIRE 192 32 192 0
WIRE 576 48 496 48
WIRE 496 112 496 48
WIRE 80 128 16 128
WIRE 192 128 192 96
WIRE 192 128 160 128
WIRE 224 128 192 128
WIRE 336 128 336 64
WIRE 336 128 304 128
WIRE 464 128 336 128
WIRE 16 144 16 128
WIRE 592 144 528 144
WIRE 688 144 592 144
WIRE 192 160 192 128
WIRE 432 160 416 160
WIRE 464 160 432 160
WIRE 688 160 688 144
WIRE 416 192 416 160
WIRE 432 240 432 160
WIRE 512 240 432 240
WIRE 592 240 592 144
WIRE 192 256 192 224
WIRE 336 256 336 192
WIRE 688 272 688 240
WIRE 496 304 496 176
WIRE 192 368 192 320
FLAG 16 224 0
FLAG 272 -64 0
FLAG 192 368 0
FLAG 336 256 0
FLAG 688 272 0
FLAG 464 -16 0
FLAG 496 384 0
FLAG 576 -32 0
SYMBOL voltage 16 128 R0
WINDOW 3 -86 132 Left 2
WINDOW 123 0 0 Left 0
WINDOW 39 0 0 Left 0
SYMATTR InstName V1
SYMATTR Value SINE(0 5 4000)
SYMBOL res 176 112 R90
WINDOW 0 0 56 VBottom 2
WINDOW 3 32 56 VTop 2
SYMATTR InstName R1
SYMATTR Value 1000
SYMBOL res 320 112 R90
WINDOW 0 0 56 VBottom 2
WINDOW 3 32 56 VTop 2
SYMATTR InstName R2
SYMATTR Value 1000
SYMBOL res 432 176 R90
WINDOW 0 0 56 VBottom 2
WINDOW 3 32 56 VTop 2
SYMATTR InstName R3
SYMATTR Value 1000
SYMBOL res 352 80 R180
WINDOW 0 36 76 Left 2
WINDOW 3 36 40 Left 2
SYMATTR InstName R4
SYMATTR Value 1000
SYMBOL res 496 256 R270
WINDOW 0 32 56 VTop 2
WINDOW 3 0 56 VBottom 2
SYMATTR InstName R5
SYMATTR Value 1000
SYMBOL res 672 144 R0
SYMATTR InstName R6
SYMATTR Value 1000
SYMBOL OpAmps\\AD711 496 208 M180
SYMATTR InstName U1
SYMBOL voltage 368 -16 R270
WINDOW 0 32 56 VTop 2
WINDOW 3 -32 56 VBottom 2
WINDOW 123 0 0 Left 0
WINDOW 39 0 0 Left 0
SYMATTR InstName V2
SYMATTR Value 1.5
SYMBOL diode 208 96 R180
WINDOW 0 24 64 Left 2
WINDOW 3 55 28 Left 2
SYMATTR InstName D1
SYMATTR Value BAW156HM
SYMBOL diode 208 0 R180
WINDOW 0 24 64 Left 2
WINDOW 3 24 0 Left 2
SYMATTR InstName D2
SYMATTR Value BAW156HM
SYMBOL diode 208 224 R180
WINDOW 0 24 64 Left 2
WINDOW 3 24 0 Left 2
SYMATTR InstName D3
SYMATTR Value BAW156HM
SYMBOL diode 208 320 R180
WINDOW 0 24 64 Left 2
WINDOW 3 24 0 Left 2
SYMATTR InstName D4
SYMATTR Value BAW156HM
SYMBOL voltage 576 64 R180
WINDOW 0 24 96 Left 2
WINDOW 3 24 16 Left 2
WINDOW 123 0 0 Left 0
WINDOW 39 0 0 Left 0
SYMATTR InstName V3
SYMATTR Value -3
SYMBOL voltage 496 288 R0
WINDOW 123 0 0 Left 0
WINDOW 39 0 0 Left 0
SYMATTR InstName V4
SYMATTR Value 3
TEXT -764 392 Left 2 !.tran 0 0.0025 0 0.00025
