Version 4
SHEET 1 880 680
WIRE 192 0 0 0
WIRE 0 32 0 0
WIRE 256 112 128 112
WIRE 0 128 0 112
WIRE 192 144 192 0
WIRE 128 160 128 112
WIRE 160 160 128 160
WIRE 256 176 256 112
WIRE 256 176 224 176
WIRE 288 176 256 176
WIRE -128 192 -192 192
WIRE -16 192 -48 192
WIRE 0 192 -16 192
WIRE 128 192 80 192
WIRE 160 192 128 192
WIRE -192 224 -192 192
WIRE -16 224 -16 192
WIRE -16 224 -48 224
WIRE 192 240 192 208
WIRE 128 256 128 192
WIRE -48 288 -48 224
WIRE -192 336 -192 304
WIRE 128 336 128 320
WIRE 16 368 16 288
WIRE 288 368 288 176
WIRE 288 368 16 368
FLAG 128 336 0
FLAG -192 336 0
FLAG 0 128 0
FLAG 192 320 0
SYMBOL OpAmps\\AD711 192 112 R0
SYMATTR InstName U1
SYMBOL res -32 176 R90
WINDOW 0 0 56 VBottom 2
WINDOW 3 32 56 VTop 2
SYMATTR InstName R1
SYMATTR Value 2k
SYMBOL res 96 176 R90
WINDOW 0 0 56 VBottom 2
WINDOW 3 32 56 VTop 2
SYMATTR InstName R2
SYMATTR Value 2k
SYMBOL cap 16 272 R90
WINDOW 0 0 32 VBottom 2
WINDOW 3 32 32 VTop 2
SYMATTR InstName C1
SYMATTR Value 100p
SYMBOL cap 144 320 R180
WINDOW 0 24 56 Left 2
WINDOW 3 24 8 Left 2
SYMATTR InstName C2
SYMATTR Value 100p
SYMBOL voltage -192 208 R0
WINDOW 123 24 124 Left 2
WINDOW 39 0 0 Left 0
WINDOW 3 -109 187 Left 2
SYMATTR InstName AC1
SYMATTR Value PULSE(0 3.3 0 0 0 0.0000005 0.000001 1000)
SYMBOL voltage 0 16 R0
WINDOW 123 0 0 Left 0
WINDOW 39 0 0 Left 0
SYMATTR InstName V2
SYMATTR Value 5
SYMBOL voltage 192 224 R0
WINDOW 123 0 0 Left 0
WINDOW 39 0 0 Left 0
SYMATTR InstName V1
SYMATTR Value -5
TEXT 16 424 Left 2 !.tran 0 0.000125 0 0.0000025
TEXT -226 444 Left 2 !;tran 0.006
